# generated using pymatgen
data_Ta2O5
_symmetry_space_group_name_H-M   'P 1'
_cell_length_a   6.13899000
_cell_length_b   5.20909200
_cell_length_c   5.82716438
_cell_angle_alpha   90.00000000
_cell_angle_beta   118.77094483
_cell_angle_gamma   90.00000000
_symmetry_Int_Tables_number   1
_chemical_formula_structural   Ta2O5
_chemical_formula_sum   'Ta4 O10'
_cell_volume   163.34029952
_cell_formula_units_Z   2
loop_
 _symmetry_equiv_pos_site_id
 _symmetry_equiv_pos_as_xyz
  1  'x, y, z'
loop_
 _atom_type_symbol
 _atom_type_oxidation_number
  Ta5+  5.0
  O2-  -2.0
loop_
 _atom_site_type_symbol
 _atom_site_label
 _atom_site_symmetry_multiplicity
 _atom_site_fract_x
 _atom_site_fract_y
 _atom_site_fract_z
 _atom_site_occupancy
  Ta5+  Ta0  1  0.30868550  0.53574050  0.70543000  1
  Ta5+  Ta1  1  0.19131450  0.03574050  0.29457000  1
  Ta5+  Ta2  1  0.80868550  0.03574050  0.70543000  1
  Ta5+  Ta3  1  0.69131450  0.53574050  0.29457000  1
  O2-  O4  1  0.07678650  0.70884750  0.35452700  1
  O2-  O5  1  0.32679200  0.56202200  0.03920200  1
  O2-  O6  1  0.00000000  0.27777900  0.50000000  1
  O2-  O7  1  0.17320800  0.06202200  0.96079800  1
  O2-  O8  1  0.42321350  0.20884750  0.64547300  1
  O2-  O9  1  0.57678650  0.20884750  0.35452700  1
  O2-  O10  1  0.82679200  0.06202200  0.03920200  1
  O2-  O11  1  0.50000000  0.77777900  0.50000000  1
  O2-  O12  1  0.67320800  0.56202200  0.96079800  1
  O2-  O13  1  0.92321350  0.70884750  0.64547300  1
